Circuit: * C:\Users\clee4\Documents\2021-2022\AD Comms\AnalogDigitalComms_HardwareRadio\log_implementation\colpitts.asc

WARNING: Less than two connections to node +2.5V.  This node is used by V2.
Per .tran options, skipping operating point for transient analysis.

Date: Tue Dec 07 23:50:17 2021
Total elapsed time: 6.230 seconds.

tnom = 27
temp = 27
method = modified trap
totiter = 196035
traniter = 196035
tranpoints = 87716
accept = 58890
rejected = 28826
matrix size = 68
fillins = 34
solver = Normal
Thread vector: 82.8/27.0[8] 16.9/5.2[8] 8.2/3.1[8] 0.3/2.0[1]  2592/500
Matrix Compiler1: 4.44 KB object code size  2.8/1.5/[0.5]
Matrix Compiler2: 7.12 KB object code size  2.4/2.7/[0.4]

