Circuit: * C:\Users\alee2\Documents\GitHub\AnalogDigitalComms_HardwareRadio\colpitts\colpitts.asc

Per .tran options, skipping operating point for transient analysis.

Date: Tue Nov 09 12:39:35 2021
Total elapsed time: 0.666 seconds.

tnom = 27
temp = 27
method = modified trap
totiter = 202535
traniter = 202535
tranpoints = 101173
accept = 101118
rejected = 55
matrix size = 13
fillins = 6
solver = Normal
Matrix Compiler1: 746 bytes object code size  0.2/0.1/[0.0]
Matrix Compiler2: 1.13 KB object code size  0.1/0.1/[0.1]

