Circuit: * C:\Users\clee4\Documents\2021-2022\AD Comms\AnalogDigitalComms_HardwareRadio\colpitts\colpitts.asc

Per .tran options, skipping operating point for transient analysis.
Changing Tseed to 9.86328e-009
Changing Tseed to 9.86328e-011

Date: Wed Nov 10 18:08:48 2021
Total elapsed time: 12.131 seconds.

tnom = 27
temp = 27
method = modified trap
totiter = 678718
traniter = 678718
tranpoints = 288419
accept = 200896
rejected = 87521
matrix size = 45
fillins = 22
solver = Normal
Thread vector: 11.5/6.9[5] 4.0/2.7[5] 2.1/1.5[5] 0.1/1.4[1]  2592/500
Matrix Compiler1: 2.62 KB object code size  0.7/0.4/[0.2]
Matrix Compiler2: 4.24 KB object code size  0.4/0.6/[0.2]

