Circuit: * C:\Users\clee4\Documents\2021-2022\AD Comms\AnalogDigitalComms_HardwareRadio\colpitts.asc

Per .tran options, skipping operating point for transient analysis.

Date: Wed Nov 03 22:22:24 2021
Total elapsed time: 0.674 seconds.

tnom = 27
temp = 27
method = modified trap
totiter = 202535
traniter = 202535
tranpoints = 101173
accept = 101118
rejected = 55
matrix size = 13
fillins = 6
solver = Normal
Matrix Compiler1: 746 bytes object code size  0.2/0.1/[0.1]
Matrix Compiler2: 1.13 KB object code size  0.1/0.1/[0.1]

