Circuit: * C:\Users\clee4\Documents\2021-2022\AD Comms\AnalogDigitalComms_HardwareRadio\colpitts\colpitts.asc

Per .tran options, skipping operating point for transient analysis.
Changing Tseed to 9.86328e-009
Changing Tseed to 9.86328e-011
Changing Tseed to 9.86328e-008
Changing Tseed to 9.86328e-012

Date: Fri Dec 03 02:03:04 2021
Total elapsed time: 38.318 seconds.

tnom = 27
temp = 27
method = modified trap
totiter = 1554878
traniter = 1554878
tranpoints = 604907
accept = 436908
rejected = 167995
matrix size = 57
fillins = 30
solver = Normal
Thread vector: 15.3/8.2[7] 9.5/3.9[7] 8.9/2.5[7] 0.2/1.5[1]  2592/500
Matrix Compiler1: 3.57 KB object code size  1.2/0.8/[0.3]
Matrix Compiler2: 5.47 KB object code size  0.8/1.8/[0.4]

