Circuit: * C:\Users\clee4\Documents\2021-2022\AD Comms\AnalogDigitalComms_HardwareRadio\colpitts\colpitts.asc

Per .tran options, skipping operating point for transient analysis.
Changing Tseed to 9.86328e-009
Changing Tseed to 9.86328e-011
Changing Tseed to 9.86328e-008
Changing Tseed to 9.86328e-012

Date: Fri Dec 03 01:20:42 2021
Total elapsed time: 37.454 seconds.

tnom = 27
temp = 27
method = modified trap
totiter = 1573163
traniter = 1573163
tranpoints = 610568
accept = 439813
rejected = 170751
matrix size = 56
fillins = 30
solver = Normal
Thread vector: 16.2/7.6[7] 5.1/2.8[7] 2.9/2.0[7] 0.2/1.1[1]  2592/500
Matrix Compiler1: 3.52 KB object code size  0.8/0.4/[0.2]
Matrix Compiler2: 5.39 KB object code size  0.5/0.6/[0.3]

