Circuit: * C:\Users\clee4\Documents\2021-2022\AD Comms\AnalogDigitalComms_HardwareRadio\colpitts\Draft1.asc

WARNING: Less than two connections to node N008.  This node is used by V10.
Per .tran options, skipping operating point for transient analysis.

Date: Thu Dec 09 22:29:28 2021
Total elapsed time: 30.462 seconds.

tnom = 27
temp = 27
method = modified trap
totiter = 479248
traniter = 479248
tranpoints = 238577
accept = 145654
rejected = 92923
matrix size = 115
fillins = 60
solver = Normal
Thread vector: 129.4/29.9[12] 21.2/10.6[12] 13.1/6.6[12] 0.6/2.4[1]  2592/500
Matrix Compiler1: 7.83 KB object code size  4.9/14.8/[0.5]
Matrix Compiler2: 12.44 KB object code size  2.8/3.4/[0.6]

