Circuit: * C:\Users\clee4\Documents\2021-2022\AD Comms\AnalogDigitalComms_HardwareRadio\colpitts\Draft1.asc

WARNING: Less than two connections to node N008.  This node is used by V10.
Per .tran options, skipping operating point for transient analysis.

Date: Wed Dec 08 00:43:07 2021
Total elapsed time: 29.027 seconds.

tnom = 27
temp = 27
method = modified trap
totiter = 479274
traniter = 479274
tranpoints = 238593
accept = 145654
rejected = 92939
matrix size = 98
fillins = 48
solver = Normal
Thread vector: 90.2/25.4[11] 24.8/10.1[11] 13.6/6.4[11] 0.4/4.2[1]  2592/500
Matrix Compiler1: 6.43 KB object code size  4.7/2.4/[0.5]
Matrix Compiler2: 10.38 KB object code size  2.4/3.3/[0.7]

