Circuit: * C:\Users\clee4\Documents\2021-2022\AD Comms\AnalogDigitalComms_HardwareRadio\colpitts\Draft1.asc

WARNING: Less than two connections to node N008.  This node is used by V10.
Per .tran options, skipping operating point for transient analysis.

Date: Wed Dec 08 21:09:45 2021
Total elapsed time: 39.827 seconds.

tnom = 27
temp = 27
method = modified trap
totiter = 479250
traniter = 479250
tranpoints = 238578
accept = 145654
rejected = 92924
matrix size = 115
fillins = 60
solver = Normal
Thread vector: 63.0/24.2[12] 27.4/12.9[12] 15.0/7.3[12] 0.6/2.3[1]  2592/500
Matrix Compiler1: 7.83 KB object code size  4.2/3.8/[0.6]
Matrix Compiler2: 12.44 KB object code size  2.5/3.6/[0.6]

