Circuit: * C:\Users\alee2\Documents\GitHub\AnalogDigitalComms_HardwareRadio\Mixer\DiffAmp_Mixer.asc

WARNING: Less than two connections to node OUT.  This node is used by E1.
Direct Newton iteration for .op point succeeded.

Date: Thu Dec 09 14:46:15 2021
Total elapsed time: 0.475 seconds.

tnom = 27
temp = 27
method = modified trap
totiter = 158901
traniter = 158893
tranpoints = 58872
accept = 39115
rejected = 19757
matrix size = 16
fillins = 10
solver = Normal
Matrix Compiler1: 1.24 KB object code size  0.2/0.2/[0.1]
Matrix Compiler2: 1.34 KB object code size  0.1/0.1/[0.1]

