Circuit: * C:\Users\alee2\Documents\GitHub\AnalogDigitalComms_HardwareRadio\Mixer\GilbertCell_Mixer_Trial2.asc

WARNING: Less than two connections to node OUT.  This node is used by E1.
Direct Newton iteration for .op point succeeded.

Date: Mon Nov 15 21:14:59 2021
Total elapsed time: 0.723 seconds.

tnom = 27
temp = 27
method = modified trap
totiter = 96863
traniter = 96841
tranpoints = 43868
accept = 27368
rejected = 16500
matrix size = 37
fillins = 68
solver = Normal
Matrix Compiler1: 6.86 KB object code size  0.9/0.5/[0.3]
Matrix Compiler2: off  [0.3]/0.4/0.4

