Circuit: * C:\Users\alee2\Documents\GitHub\AnalogDigitalComms_HardwareRadio\Mixer\GilbertCell_w_o_stabilizer.asc

WARNING: Less than two connections to node OUT.  This node is used by E1.
Direct Newton iteration for .op point succeeded.

Date: Wed Dec 08 20:27:16 2021
Total elapsed time: 0.746 seconds.

tnom = 27
temp = 27
method = modified trap
totiter = 99493
traniter = 99462
tranpoints = 43639
accept = 28441
rejected = 15198
matrix size = 35
fillins = 52
solver = Normal
Matrix Compiler1: 5.51 KB object code size  1.4/0.9/[0.3]
Matrix Compiler2: off  [0.2]/0.4/0.8

