Circuit: * C:\Users\alee2\Documents\GitHub\AnalogDigitalComms_HardwareRadio\Mixer\GilbertCell_Mixer_Trial2.asc

Direct Newton iteration for .op point succeeded.

Date: Wed Nov 10 19:57:45 2021
Total elapsed time: 0.779 seconds.

tnom = 27
temp = 27
method = modified trap
totiter = 91789
traniter = 91769
tranpoints = 43866
accept = 27368
rejected = 16498
matrix size = 38
fillins = 74
solver = Normal
Matrix Compiler1: 7.43 KB object code size  1.1/0.6/[0.5]
Matrix Compiler2: off  [0.3]/0.5/0.5

