Circuit: * C:\Users\alee2\Documents\GitHub\AnalogDigitalComms_HardwareRadio\Mixer\GilbertCell_Mixer_Trial2.asc

WARNING: Less than two connections to node OUT.  This node is used by E1.
Direct Newton iteration for .op point succeeded.

Date: Wed Dec 08 20:26:16 2021
Total elapsed time: 0.455 seconds.

tnom = 27
temp = 27
method = modified trap
totiter = 91354
traniter = 91334
tranpoints = 43868
accept = 27368
rejected = 16500
matrix size = 37
fillins = 68
solver = Normal
Matrix Compiler1: 6.86 KB object code size  0.8/0.5/[0.3]
Matrix Compiler2: 4.30 KB object code size  0.3/0.4/[0.2]

